7
R0102 1 2 3.33333333333333
R0304 3 4 3.33333333333333
R0500 5 0 -1.42857142857143
R0605 6 5 1.9
L0600 6 0 1
C0507 5 7 0.31
C0607 6 7 1
D0002 0 2
D0503 5 3
V0400 4 0 DC 1
V0700 7 0 PULSE 0 0.1 0 0 0 10000 20000 1
V0105 1 5 DC 1
.TRAN 10000 100E-3 TRAP 1
