2
C1 2 1 1
R2 1 0 1
V1 2 0 SIN 0 3 1 0 0 0 10
.TRAN 1 0.01 TRAP 1
