6
R0100 1 0 1
D0501 1 0
V0600 1 0 PULSE 1 2 0 1E-6 1E-6 1E-6 200E-6 200
C0100 0 0 1
.TRAN 50E-6 10E-8 TRAP 1
