6
R0100 1 0 100
C0500 2 0 100E-9
C0100 1 0 10E-6
D0100 2 1
.TRAN 10E-4 10E-8 TRAP 1
