6
R0100 1 0 1
V0600 1 0 DC 10
.TRAN 10E-4 10E-8 TRAP 1
