6
R0100 1 0 1
V0600 1 0 DC 10
C0100 1 0 10E-3
.TRAN 10E-2 10E-4 TRAP 1
